## Add override files here
#override DT=500
#override DT_THERM=2000
DTBT = -0.75
