ttide
1991 1 1 0 0 0

## 2D Diagnostics at 6hrs frequency. Mostly for tracking eddies 
"surface",            6, "hours",   1, "hours", "time"

"ocean_model",   "zos",          "zos",              "surface",         "all", "mean", "none",2
"ocean_model",   "tob",          "tob",              "surface",        "all", "mean", "none",2
"ocean_model",   "sob",          "sob",              "surface",         "all", "mean", "none",2
"ocean_model",   "mlotst",       "mlotst",           "surface",         "all", "mean", "none",2
"ocean_model",   "speed",        "speed",            "surface",         "all", "mean", "none",2


## Instead of regional selection, split the variables of interest into separate files and slice afterwards in Python

## 3D Diagnostifcs on z*
"u", 1, "hours", 1, "hours", "time"
"h", 1, "hours", 1, "hours", "time"
"v", 1, "hours", 1, "hours", "time"
"rho", 1, "hours", 1, "hours", "time"
"N2", 1, "days", 1, "hours","time"

"ocean_model","u",   "u",   "u","all",.false.,"none",2
"ocean_model","v",   "v",   "v","all",.false.,"none",2
"ocean_model","h",   "h",   "h","all",.false.,"none",2
"ocean_model","rhopot2",   "rhopot2",   "rho","all",.false.,"none",2
"ocean_model","subML_N2",   "subML_N2",   "N2","all",.false.,"none",2


## 3D Diagnostics on isopycnal surfaces
"e", 1, "hours", 1, "hours", "time"
"u_ISOP", 1, "hours", 1, "hours", "time"
"v_ISOP", 1, "hours", 1, "hours", "time"

"ocean_model_rho2","e","e","e","all",.false.,"none",2
"ocean_model_rho2","u",   "u",   "u_ISOP","all",.false.,"none",2
"ocean_model_rho2","v",   "v",   "v_ISOP","all",.false.,"none",2


## 3D mixing diagnostics on isoycnal surfaces. Daily averages
# "KE_stress", 1, "days", 1, "hours", "time"
# "KE_visc", 1, "days", 1, "hours", "time"
# "KE_horvisc", 1, "days", 1, "hours", "time"
# "PE_to_KE", 1, "days", 1, "hours", "time"
# "dKE_dt", 1, "days", 1, "hours", "time"

"ocean_model_rho2","KE_stress",   "KE_stress",   "KE_stress","all","mean","none",2
"ocean_model_rho2","KE_visc",   "KE_visc",   "KE_visc","all","mean","none",2
"ocean_model_rho2","KE_horvisc",   "KE_horvisc",   "KE_horvisc","all","mean","none",2
"ocean_model_rho2","PE_to_KE",   "PE_to_KE",   "PE_to_KE","all","mean","none",2
"ocean_model_rho2","dKE_dt",   "dKE_dt",   "dKE_dt","all","mean","none",2




